
#======================================================================
# CRYSTAL DATA
#----------------------------------------------------------------------
data_VESTA_phase_1

_chemical_name_common                  'Uranium vanadium stannide (1/6/6)'
_cell_length_a                         5.520000
_cell_length_b                         5.520000
_cell_length_c                         9.120000
_cell_angle_alpha                      90.000000
_cell_angle_beta                       90.000000
_cell_angle_gamma                      120.000000
_cell_volume                           240.659836
_space_group_name_H-M_alt              'P 6/m m m'
_space_group_IT_number                 191

loop_
_space_group_symop_operation_xyz
   'x, y, z'
   '-x, -y, -z'
   '-y, x-y, z'
   'y, -x+y, -z'
   '-x+y, -x, z'
   'x-y, x, -z'
   '-x, -y, z'
   'x, y, -z'
   'y, -x+y, z'
   '-y, x-y, -z'
   'x-y, x, z'
   '-x+y, -x, -z'
   'y, x, -z'
   '-y, -x, z'
   'x-y, -y, -z'
   '-x+y, y, z'
   '-x, -x+y, -z'
   'x, x-y, z'
   '-y, -x, -z'
   'y, x, z'
   '-x+y, y, -z'
   'x-y, -y, z'
   'x, x-y, -z'
   '-x, -x+y, z'

loop_
   _atom_site_label
   _atom_site_occupancy
   _atom_site_fract_x
   _atom_site_fract_y
   _atom_site_fract_z
   _atom_site_adp_type
   _atom_site_B_iso_or_equiv
   _atom_site_type_symbol
   U1         1.0     0.000000     0.000000     0.000000    Biso  ? U
   Sn1        1.0     0.333333     0.666667     0.500000    Biso  ? Sn
   Sn2        1.0     0.333333     0.666667     0.000000    Biso  ? Sn
   Sn3        1.0     0.000000     0.000000     0.345000    Biso  ? Sn
   V1         1.0     0.500000     0.000000     0.248900    Biso  ? V
